216
Mg5Si2O8OH, chondrodite: Yamamoto, Acta Cryst.B33,1481,77'
Mg    3.957000    2.376000    0.000000
Mg    0.636945    2.376000    9.803047
Mg    3.957000    7.128000    0.000000
Mg    0.636945    7.128000    9.803047
Mg   11.871000    2.376000    0.000000
Mg    8.550944    2.376000    9.803047
Mg   11.871000    7.128000    0.000000
Mg    8.550944    7.128000    9.803047
Mg    2.296972    0.000000    4.901524
Mg    2.296972    4.752000    4.901524
Mg    2.296972    9.504000    4.901524
Mg   10.210972    0.000000    4.901524
Mg   10.210972    4.752000    4.901524
Mg   10.210972    9.504000    4.901524
Mg    1.861965    0.034690    1.720435
Mg    1.861965    4.786689    1.720435
Mg    9.775965    0.034690    1.720435
Mg    9.775965    4.786689    1.720435
Mg    2.731980    4.717310    8.082612
Mg    2.731980    9.469310    8.082612
Mg   10.645980    4.717310    8.082612
Mg   10.645980    9.469310    8.082612
Mg    4.392008    2.410690    3.181089
Mg    4.392008    7.162689    3.181089
Mg   12.306007    2.410690    3.181089
Mg   12.306007    7.162689    3.181089
Mg    0.201937    2.341310    6.621959
Mg    0.201937    7.093310    6.621959
Mg    8.115937    2.341310    6.621959
Mg    8.115937    7.093310    6.621959
Mg   -2.324096    2.316600    8.663934
Mg   -2.324096    7.068600    8.663934
Mg    5.589904    2.316600    8.663934
Mg    5.589904    7.068600    8.663934
Mg    6.918040    2.435400    1.139114
Mg    6.918040    7.187400    1.139114
Mg   14.832041    2.435400    1.139114
Mg   14.832041    7.187400    1.139114
Mg    5.258013    4.692600    6.040637
Mg    5.258013    9.444599    6.040637
Mg   13.172012    4.692600    6.040637
Mg   13.172012    9.444599    6.040637
Mg   -0.664068    0.059400    3.762410
Mg   -0.664068    4.811400    3.762410
Mg    7.249932    0.059400    3.762410
Mg    7.249932    4.811400    3.762410
Si    5.088164    0.369230    1.380269
Si    5.088164    5.121230    1.380269
Si   13.002165    0.369230    1.380269
Si   13.002165    5.121230    1.380269
Si   -0.494220    4.382770    8.422778
Si   -0.494220    9.134769    8.422778
Si    7.419780    4.382770    8.422778
Si    7.419780    9.134769    8.422778
Si    1.165808    2.745230    3.521255
Si    1.165808    7.497231    3.521255
Si    9.079808    2.745230    3.521255
Si    9.079808    7.497231    3.521255
Si    3.428137    2.006770    6.281793
Si    3.428137    6.758770    6.281793
Si   11.342136    2.006770    6.281793
Si   11.342136    6.758770    6.281793
 O    2.338328    3.688027    0.026468
 O    2.338328    8.440027    0.026468
 O   10.252329    3.688027    0.026468
 O   10.252329    8.440027    0.026468
 O    2.255616    1.063973    9.776579
 O    2.255616    5.815973    9.776579
 O   10.169617    1.063973    9.776579
 O   10.169617    5.815973    9.776579
 O    3.915644    1.312027    4.875055
 O    3.915644    6.064027    4.875055
 O   11.829644    1.312027    4.875055
 O   11.829644    6.064027    4.875055
 O    0.678301    3.439973    4.927991
 O    0.678301    8.191973    4.927991
 O    8.592300    3.439973    4.927991
 O    8.592300    8.191973    4.927991
 O    0.210403    3.452803    2.397825
 O    0.210403    8.204803    2.397825
 O    8.124403    3.452803    2.397825
 O    8.124403    8.204803    2.397825
 O    4.383542    1.299197    7.405222
 O    4.383542    6.051197    7.405222
 O   12.297542    1.299197    7.405222
 O   12.297542    6.051197    7.405222
 O    6.043569    1.076803    2.503698
 O    6.043569    5.828803    2.503698
 O   13.957569    1.076803    2.503698
 O   13.957569    5.828803    2.503698
 O   -1.449625    3.675197    7.299349
 O   -1.449625    8.427197    7.299349
 O    6.464375    3.675197    7.299349
 O    6.464375    8.427197    7.299349
 O    3.630856    1.068725    1.642991
 O    3.630856    5.820724    1.642991
 O   11.544856    1.068725    1.642991
 O   11.544856    5.820724    1.642991
 O    0.963089    3.683275    8.160056
 O    0.963089    8.435275    8.160056
 O    8.877089    3.683275    8.160056
 O    8.877089    8.435275    8.160056
 O    2.623116    3.444725    3.258533
 O    2.623116    8.196725    3.258533
 O   10.537116    3.444725    3.258533
 O   10.537116    8.196725    3.258533
 O    1.970828    1.307275    6.544515
 O    1.970828    6.059275    6.544515
 O    9.884829    1.307275    6.544515
 O    9.884829    6.059275    6.544515
 O   -0.491127    1.250251    8.397290
 O   -0.491127    6.002251    8.397290
 O    7.422873    1.250251    8.397290
 O    7.422873    6.002251    8.397290
 O    5.085072    3.501749    1.405757
 O    5.085072    8.253748    1.405757
 O   12.999072    3.501749    1.405757
 O   12.999072    8.253748    1.405757
 O    3.425045    3.626251    6.307281
 O    3.425045    8.378251    6.307281
 O   11.339045    3.626251    6.307281
 O   11.339045    8.378251    6.307281
 O    1.168900    1.125749    3.495767
 O    1.168900    5.877748    3.495767
 O    9.082900    1.125749    3.495767
 O    9.082900    5.877748    3.495767
 O    0.642846    1.259280    0.588183
 O    0.642846    6.011280    0.588183
 O    8.556847    1.259280    0.588183
 O    8.556847    6.011280    0.588183
 O    3.951098    3.492720    9.214865
 O    3.951098    8.244720    9.214865
 O   11.865098    3.492720    9.214865
 O   11.865098    8.244720    9.214865
 O    5.611126    3.635280    4.313341
 O    5.611126    8.387280    4.313341
 O   13.525126    3.635280    4.313341
 O   13.525126    8.387280    4.313341
 O   -1.017182    1.116720    5.489707
 O   -1.017182    5.868720    5.489707
 O    6.896819    1.116720    5.489707
 O    6.896819    5.868720    5.489707
 O    2.828928    1.250251   -1.405757
 O    4.283144    3.683275   -1.642991
 O    5.575672    1.063973   -0.026468
 O   -0.981727    3.688027    9.829515
 O    0.310801    1.068725   11.446038
 O    1.765017    3.501749   11.208804
 O    2.828928    6.002251   -1.405757
 O    4.283144    8.435275   -1.642991
 O    5.575672    5.815973   -0.026468
 O   -0.981727    8.440027    9.829515
 O    0.310801    5.820724   11.446038
 O    1.765017    8.253748   11.208804
 O   10.742929    1.250251   -1.405757
 O   12.197144    3.683275   -1.642991
 O   13.489672    1.063973   -0.026468
 O    6.932273    3.688027    9.829515
 O    8.224800    1.068725   11.446038
 O    9.679016    3.501749   11.208804
 O   10.742929    6.002251   -1.405757
 O   12.197144    8.435275   -1.642991
 O   13.489672    5.815973   -0.026468
 O    6.932273    8.440027    9.829515
 O    8.224800    5.820724   11.446038
 O    9.679016    8.253748   11.208804
 O    2.623116   -1.307275    3.258533
 O    0.678301   -1.312027    4.927991
 O    3.425045   -1.125749    6.307281
 O    1.168900   10.629748    3.495767
 O    3.915644   10.816027    4.875055
 O    1.970828   10.811275    6.544515
 O   10.537116   -1.307275    3.258533
 O    8.592300   -1.312027    4.927991
 O   11.339045   -1.125749    6.307281
 O    9.082900   10.629748    3.495767
 O   11.829644   10.816027    4.875055
 O    9.884829   10.811275    6.544515
 O    0.210403   -1.299197    2.397825
 O    2.338328   -1.063973    0.026468
 O    8.124403   -1.299197    2.397825
 O   10.252329   -1.063973    0.026468
 O    2.255616   10.567972    9.776579
 O    4.383542   10.803197    7.405222
 O   10.169617   10.567972    9.776579
 O   12.297542   10.803197    7.405222
 O   -3.530458    1.299197    7.405222
 O   -3.962902    3.492720    9.214865
 O   -2.677209    1.259280   10.391230
 O   -3.530458    6.051197    7.405222
 O   -3.962902    8.244720    9.214865
 O   -2.677209    6.011280   10.391230
 O    5.236791    1.259280   10.391230
 O    5.236791    6.011280   10.391230
 O    7.271153    3.492720   -0.588182
 O    7.271153    8.244720   -0.588182
 O   15.185154    3.492720   -0.588182
 O   16.470846    1.259280    0.588183
 O   16.038403    3.452803    2.397825
 O   15.185154    8.244720   -0.588182
 O   16.470846    6.011280    0.588183
 O   16.038403    8.204803    2.397825
 O    6.896819   10.620720    5.489707
 O   14.378376    3.675197    7.299349
 O   14.810819    5.868720    5.489707
 O   14.378376    8.427197    7.299349
 O   14.810819   10.620720    5.489707
 O   -2.302874   -1.116720    4.313341
 O   -1.870431    1.076803    2.503698
 O   -2.302874    3.635280    4.313341
 O   -1.870431    5.828803    2.503698
 O    5.611126   -1.116720    4.313341
 O    5.085072   -1.250251    1.405757
 O   12.999072   -1.250251    1.405757
 O   -0.491127   10.754251    8.397290
 O    7.422873   10.754251    8.397290
